% ---------------------------- PROBLEM DEFINITION ---------------------------- %
SOLVER= RANS
MATH_PROBLEM= DIRECT
AXISYMMETRIC= YES
RESTART_SOL= NO

% ---------------------------- REFERENCE VALUES ------------------------------ %
REF_ORIGIN_MOMENT_X= 0.0
REF_ORIGIN_MOMENT_Y= 0.0
REF_ORIGIN_MOMENT_Z= 0.0
REF_LENGTH= 0.001 
REF_AREA= 7.85398e-7  
REF_DIMENSIONALIZATION= DIMENSIONAL

% ---------------------------- FREE-STREAM CONDITIONS ------------------------ %
MACH_NUMBER= 0.1
AOA= 0.0
SIDESLIP_ANGLE= 0.0
FREESTREAM_PRESSURE= 101325.0
FREESTREAM_TEMPERATURE= 300.0
REYNOLDS_NUMBER= 2000 
REYNOLDS_LENGTH= 0.001 

% ---------------------------- BOUNDARY CONDITIONS --------------------------- %
MARKER_INLET= ( inlet, 300.0, 101325.0, 1.0, 0.0, 0.0 )  
MARKER_OUTLET= ( outlet, 101325.0 )
MARKER_EULER= ( wall ) 
MARKER_SYM= ( axis )  
MARKER_FLUID_LOAD= ( fluid )


% ---------------------------- NUMERICAL METHODS ----------------------------- %
CONV_NUM_METHOD_FLOW= ROE
MUSCL_FLOW= YES
SLOPE_LIMITER_FLOW= VENKATAKRISHNAN
TIME_DISCRE_FLOW= EULER_IMPLICIT
CFL_NUMBER= 5.0
CFL_ADAPT= YES
CFL_ADAPT_PARAM= ( 0.1, 2.0, 10.0, 1e10, 0.001 )

% ---------------------------- TURBULENCE MODEL ------------------------------ %
KIND_TURB_MODEL= SST
SST_OPTIONS= V2003m

% ---------------------------- OUTPUT SETTINGS ------------------------------- %
MESH_FILENAME= jet_mesh.su2
OUTPUT_FILES= ( RESTART, PARAVIEW )
VOLUME_OUTPUT= ( COORDINATES, SOLUTION, PRIMITIVE )
HISTORY_OUTPUT= ( ITER, RMS_RES )
SCREEN_OUTPUT= ( INNER_ITER, RMS_DENSITY, RMS_MOMENTUM-X, RMS_MOMENTUM-Y, RMS_ENERGY )

% ---------------------------- CONVERGENCE CRITERIA -------------------------- %
CONV_FIELD= RMS_DENSITY
CONV_RESIDUAL_MINVAL= -8
CONV_CAUCHY_ELEMS= 100
CONV_CAUCHY_EPS= 1E-10